Version 4.1
SHEET 1 2692 896
WIRE 1648 -1056 1648 -1072
WIRE 1648 -944 1648 -976
WIRE 1616 -928 1600 -928
WIRE 1808 -912 1712 -912
WIRE 1552 -896 1296 -896
WIRE 1616 -896 1552 -896
WIRE 1648 -864 1648 -880
WIRE 1648 -768 1648 -784
WIRE 1552 -704 1552 -896
WIRE 1808 -704 1808 -912
WIRE 1808 -704 1552 -704
WIRE 1648 -544 1648 -560
WIRE 1648 -432 1648 -464
WIRE 1616 -416 1600 -416
WIRE 1808 -400 1712 -400
WIRE 1296 -384 1296 -896
WIRE 1552 -384 1296 -384
WIRE 1616 -384 1552 -384
WIRE 1648 -352 1648 -368
WIRE 2224 -272 2224 -304
WIRE 1648 -256 1648 -272
WIRE 1552 -192 1552 -384
WIRE 1808 -192 1808 -400
WIRE 1808 -192 1552 -192
WIRE 2224 -176 2224 -192
WIRE 912 -48 912 -64
WIRE 2224 -48 2224 -96
WIRE 2224 -48 1488 -48
WIRE 464 -32 464 -48
WIRE 1648 48 1632 48
WIRE 1760 48 1728 48
WIRE 912 64 912 32
WIRE 1488 64 1488 -48
WIRE 1568 64 1488 64
WIRE 464 80 464 48
WIRE 880 80 864 80
WIRE 1648 80 1632 80
WIRE 1760 80 1728 80
WIRE 432 96 416 96
WIRE 1072 96 976 96
WIRE 1296 96 1296 -384
WIRE 1296 96 1072 96
WIRE 1568 96 1296 96
WIRE 624 112 528 112
WIRE 672 112 624 112
WIRE 816 112 752 112
WIRE 880 112 816 112
WIRE 1776 112 1632 112
WIRE 1888 112 1856 112
WIRE 1984 112 1952 112
WIRE 2080 112 2064 112
WIRE 2224 112 2224 -48
WIRE 128 128 16 128
WIRE 240 128 192 128
WIRE 368 128 320 128
WIRE 432 128 368 128
WIRE 912 144 912 128
WIRE 464 160 464 144
WIRE 16 176 16 128
WIRE 912 240 912 224
WIRE 464 256 464 240
WIRE 16 288 16 256
WIRE 816 304 816 112
WIRE 912 304 816 304
WIRE 1072 304 1072 96
WIRE 1072 304 992 304
WIRE 368 320 368 128
WIRE 464 320 368 320
WIRE 624 320 624 112
WIRE 624 320 544 320
WIRE 2224 432 2224 192
WIRE 2224 432 1488 432
WIRE 2224 464 2224 432
WIRE 1648 528 1632 528
WIRE 1760 528 1728 528
WIRE 1488 544 1488 432
WIRE 1568 544 1488 544
WIRE 1648 560 1632 560
WIRE 1760 560 1728 560
WIRE 1296 576 1296 96
WIRE 1568 576 1296 576
WIRE 1776 592 1632 592
WIRE 1888 592 1856 592
WIRE 1984 592 1952 592
WIRE 2080 592 2064 592
WIRE 2224 592 2224 544
FLAG 16 288 0
FLAG 16 128 in
FLAG 416 96 0
FLAG 464 256 0
FLAG 464 -48 0
FLAG 864 80 0
FLAG 912 240 0
FLAG 912 -64 0
FLAG 368 128 out1
FLAG 624 112 out2
FLAG 1072 96 outGain
FLAG 1600 -416 0
FLAG 1648 -256 0
FLAG 1648 -560 0
FLAG 1808 -400 outBuffer
FLAG 2080 112 0
FLAG 2080 592 0
FLAG 2224 -304 0
FLAG 2224 592 0
FLAG 1760 48 0
FLAG 1760 80 0
FLAG 1760 528 0
FLAG 1760 560 0
FLAG 1600 -928 0
FLAG 1648 -768 0
FLAG 1648 -1072 0
SYMBOL voltage 16 160 R0
WINDOW 3 24 44 Left 2
SYMATTR Value wavefile=jingle19.wav
SYMATTR InstName V1
SYMBOL cap 192 112 R90
WINDOW 0 0 32 VBottom 2
WINDOW 3 32 32 VTop 2
SYMATTR InstName C1
SYMATTR Value 0.1
SYMBOL res 336 112 R90
WINDOW 0 0 56 VBottom 2
WINDOW 3 32 56 VTop 2
SYMATTR InstName R1
SYMATTR Value 3.3k
SYMBOL EEL3111C\\amp_tlv27x_highVdd 528 112 R0
SYMATTR InstName U1
SYMBOL voltage 464 64 R180
WINDOW 0 24 96 Left 2
WINDOW 3 24 16 Left 2
SYMATTR InstName V2
SYMATTR Value 5V
SYMBOL voltage 464 144 R0
SYMATTR InstName V3
SYMATTR Value -5V
SYMBOL res 560 304 R90
WINDOW 0 0 56 VBottom 2
WINDOW 3 32 56 VTop 2
SYMATTR InstName R2
SYMATTR Value 8.2k
SYMBOL EEL3111C\\amp_tlv27x_highVdd 976 96 R0
SYMATTR InstName U2
SYMBOL voltage 912 48 R180
WINDOW 0 24 96 Left 2
WINDOW 3 24 16 Left 2
SYMATTR InstName V4
SYMATTR Value 5V
SYMBOL voltage 912 128 R0
SYMATTR InstName V5
SYMATTR Value -5V
SYMBOL res 1008 288 R90
WINDOW 0 0 56 VBottom 2
WINDOW 3 32 56 VTop 2
SYMATTR InstName R3
SYMATTR Value 33k
SYMBOL res 768 96 R90
WINDOW 0 0 56 VBottom 2
WINDOW 3 32 56 VTop 2
SYMATTR InstName R4
SYMATTR Value 1k
SYMBOL EEL3111C\\amp_tlv27x_highVdd 1712 -400 R0
SYMATTR InstName U3
SYMBOL voltage 1648 -448 R180
WINDOW 0 24 96 Left 2
WINDOW 3 24 16 Left 2
SYMATTR InstName V6
SYMATTR Value 5V
SYMBOL voltage 1648 -368 R0
SYMATTR InstName V7
SYMATTR Value -5V
SYMBOL EEL3111C\\LM393 1600 80 R0
SYMATTR InstName U4
SYMBOL voltage 1632 48 R270
WINDOW 0 32 56 VTop 2
WINDOW 3 -32 56 VBottom 2
SYMATTR InstName V8
SYMATTR Value 5V
SYMBOL voltage 1632 80 R270
WINDOW 0 32 56 VTop 2
WINDOW 3 -32 56 VBottom 2
SYMATTR InstName V9
SYMATTR Value -5V
SYMBOL res 1872 96 R90
WINDOW 0 0 56 VBottom 2
WINDOW 3 32 56 VTop 2
SYMATTR InstName R6
SYMATTR Value 2.2k
SYMBOL diode 1952 96 R90
WINDOW 0 0 32 VBottom 2
WINDOW 3 32 32 VTop 2
SYMATTR InstName D2
SYMATTR Value 1N4148
SYMBOL voltage 1968 112 R270
WINDOW 0 32 56 VTop 2
WINDOW 3 -32 56 VBottom 2
SYMATTR InstName V10
SYMATTR Value 5V
SYMBOL EEL3111C\\LM393 1600 560 R0
SYMATTR InstName U5
SYMBOL voltage 1632 528 R270
WINDOW 0 32 56 VTop 2
WINDOW 3 -32 56 VBottom 2
SYMATTR InstName V11
SYMATTR Value 5V
SYMBOL voltage 1632 560 R270
WINDOW 0 32 56 VTop 2
WINDOW 3 -32 56 VBottom 2
SYMATTR InstName V15
SYMATTR Value -5V
SYMBOL res 1872 576 R90
WINDOW 0 0 56 VBottom 2
WINDOW 3 32 56 VTop 2
SYMATTR InstName R7
SYMATTR Value 2.2k
SYMBOL diode 1952 576 R90
WINDOW 0 0 32 VBottom 2
WINDOW 3 32 32 VTop 2
SYMATTR InstName D3
SYMATTR Value 1N4148
SYMBOL voltage 1968 592 R270
WINDOW 0 32 56 VTop 2
WINDOW 3 -32 56 VBottom 2
SYMATTR InstName V16
SYMATTR Value 5V
SYMBOL voltage 2224 -176 R180
WINDOW 0 24 96 Left 2
WINDOW 3 24 16 Left 2
SYMATTR InstName V12
SYMATTR Value 5V
SYMBOL res 2208 -192 R0
SYMATTR InstName R5
SYMATTR Value 330
SYMBOL res 2208 96 R0
SYMATTR InstName R8
SYMATTR Value 1k
SYMBOL res 2208 448 R0
SYMATTR InstName R9
SYMATTR Value 330
SYMBOL EEL3111C\\amp_tlv27x_highVdd 1712 -912 R0
SYMATTR InstName U6
SYMBOL voltage 1648 -960 R180
WINDOW 0 24 96 Left 2
WINDOW 3 24 16 Left 2
SYMATTR InstName V13
SYMATTR Value 5V
SYMBOL voltage 1648 -880 R0
SYMATTR InstName V14
SYMATTR Value -5V
TEXT -16 664 Left 2 !.tran 19
