Version 4.1
SHEET 1 880 680
WIRE 176 0 176 -16
WIRE 176 96 176 80
WIRE 96 112 96 96
WIRE 144 112 96 112
WIRE 320 128 240 128
WIRE -96 144 -128 144
WIRE 16 144 -32 144
WIRE 112 144 96 144
WIRE 144 144 112 144
WIRE -128 160 -128 144
WIRE 176 176 176 160
WIRE -128 256 -128 240
WIRE 176 272 176 256
WIRE 112 336 112 144
WIRE 176 336 112 336
WIRE 320 336 320 128
WIRE 320 336 256 336
FLAG -128 256 0
FLAG 176 -16 0
FLAG 176 272 0
FLAG 96 96 0
FLAG 320 128 out
SYMBOL EEL3111C\\amp_tlv27x_highVdd 240 128 R0
SYMATTR InstName U1
SYMBOL voltage -128 144 R0
WINDOW 123 24 124 Left 2
WINDOW 39 0 0 Left 0
SYMATTR Value2 AC 1
SYMATTR InstName V1
SYMATTR Value ""
SYMBOL res 112 128 R90
WINDOW 0 0 56 VBottom 2
WINDOW 3 32 56 VTop 2
SYMATTR InstName R1
SYMATTR Value 3.3k
SYMBOL cap -32 128 R90
WINDOW 0 0 32 VBottom 2
WINDOW 3 32 32 VTop 2
SYMATTR InstName C1
SYMATTR Value 0.1µF
SYMBOL voltage 176 160 R0
SYMATTR InstName V2
SYMATTR Value -5V
SYMBOL voltage 176 96 R180
WINDOW 0 24 96 Left 2
WINDOW 3 24 16 Left 2
SYMATTR InstName V3
SYMATTR Value 5V
SYMBOL res 272 320 R90
WINDOW 0 0 56 VBottom 2
WINDOW 3 32 56 VTop 2
SYMATTR InstName R2
SYMATTR Value 33k
TEXT -160 392 Left 2 !.ac dec 100 1 1Meg
