Version 4.1
SHEET 1 880 680
WIRE 192 -32 192 -48
WIRE 192 64 192 48
WIRE 128 80 128 64
WIRE 160 80 128 80
WIRE 352 96 256 96
WIRE 48 112 16 112
WIRE 144 112 128 112
WIRE 160 112 144 112
WIRE 16 144 16 112
WIRE 192 144 192 128
WIRE 192 240 192 224
WIRE 16 256 16 224
WIRE 144 304 144 112
WIRE 192 304 144 304
WIRE 352 304 352 96
WIRE 352 304 272 304
WIRE 144 384 144 304
WIRE 192 384 144 384
WIRE 352 384 352 304
WIRE 352 384 256 384
FLAG 16 256 0
FLAG 128 64 0
FLAG 192 240 0
FLAG 192 -48 0
FLAG 352 96 out
SYMBOL voltage 16 128 R0
WINDOW 123 24 124 Left 2
WINDOW 39 0 0 Left 0
SYMATTR InstName V1
SYMATTR Value ""
SYMATTR Value2 AC 1
SYMBOL EEL3111C\\amp_tlv27x_highVdd 256 96 R0
SYMATTR InstName U1
SYMBOL res 144 96 R90
WINDOW 0 0 56 VBottom 2
WINDOW 3 32 56 VTop 2
SYMATTR InstName R1
SYMATTR Value 1k
SYMBOL voltage 192 64 R180
WINDOW 0 24 96 Left 2
WINDOW 3 24 16 Left 2
SYMATTR InstName V2
SYMATTR Value 5V
SYMBOL voltage 192 128 R0
SYMATTR InstName V3
SYMATTR Value -5V
SYMBOL res 288 288 R90
WINDOW 0 0 56 VBottom 2
WINDOW 3 32 56 VTop 2
SYMATTR InstName R2
SYMATTR Value 1k
SYMBOL cap 256 368 R90
WINDOW 0 0 32 VBottom 2
WINDOW 3 32 32 VTop 2
SYMATTR InstName C1
SYMATTR Value 0.1µF
TEXT -16 440 Left 2 !.ac dec 100 1 1Meg
